Version 4
SHEET 1 1464 808
WIRE 656 96 32 96
WIRE 992 96 656 96
WIRE 1168 96 992 96
WIRE 992 112 992 96
WIRE 1168 144 1168 96
WIRE 656 160 656 96
WIRE 992 224 992 192
WIRE 1168 224 992 224
WIRE 992 240 992 224
WIRE 992 256 992 240
WIRE 1136 304 992 304
WIRE 464 336 304 336
WIRE 656 336 656 240
WIRE 656 336 528 336
WIRE 880 336 656 336
WIRE 944 336 880 336
WIRE 304 416 304 336
WIRE 32 432 32 96
WIRE 992 432 992 352
WIRE 656 448 656 336
WIRE 32 608 32 512
WIRE 304 608 304 496
WIRE 304 608 32 608
WIRE 416 608 304 608
WIRE 656 608 656 528
WIRE 656 608 416 608
WIRE 992 608 992 432
WIRE 992 608 656 608
WIRE 1136 608 1136 304
WIRE 1136 608 992 608
WIRE 416 640 416 608
FLAG 416 640 0
FLAG 992 240 Vout
FLAG 880 336 Vgate
FLAG 992 432 Vsource
FLAG 304 336 test
SYMBOL nmos4 944 256 R0
SYMATTR InstName M2
SYMATTR Value TSMC180nmN
SYMATTR Value2 l=360n w=100u
SYMBOL voltage 32 416 R0
WINDOW 3 24 44 Left 2
WINDOW 123 0 0 Left 0
WINDOW 39 0 0 Left 0
SYMATTR InstName V1
SYMATTR Value 1.8
SYMBOL voltage 304 400 R0
WINDOW 3 24 152 Left 2
WINDOW 123 24 124 Left 2
WINDOW 39 0 0 Left 0
SYMATTR InstName Vtest
SYMATTR Value SINE(0 30m 10k)
SYMATTR Value2 AC 1 0
SYMBOL cap 528 320 R90
WINDOW 0 0 32 VBottom 2
WINDOW 3 32 32 VTop 2
SYMATTR InstName C1
SYMATTR Value 0.1µ
SYMBOL res 640 432 R0
SYMATTR InstName R1
SYMATTR Value 50k
SYMBOL res 640 144 R0
SYMATTR InstName R2
SYMATTR Value 130k
SYMBOL ind 976 96 R0
SYMATTR InstName L1
SYMATTR Value 1000
SYMBOL res 1152 128 R0
SYMATTR InstName R3
SYMATTR Value 50k
TEXT -120 64 Left 2 !.include C:\\Users\\jacob\\OneDrive\\Documents\\4thYearSpring\\Undergraduate\\ECEN 471\\Lab2\\TSMC180nm.lib
TEXT 16 688 Left 2 !;op
TEXT 16 648 Left 2 !;ac dec 101 1 10Meg
TEXT -160 480 Left 2 !.tran 500u
